/*--------------------------------*- C++ -*----------------------------------*\
| =========                 |                                                 |
| \\      /  F ield         | OpenFOAM: The Open Source CFD Toolbox           |
|  \\    /   O peration     | Version:  v2406                                 |
|   \\  /    A nd           | Website:  www.openfoam.com                      |
|    \\/     M anipulation  |                                                 |
\*---------------------------------------------------------------------------*/
FoamFile
{
    version     2.3;
    format      ascii;
    class       dictionary;
    object      physicalProperties;
}
// * * * * * * * * * * * * * * * * * * * * * * * * * * * * * * * * * * * * * //

e               1.60217663e-19;

// H: 1.672621898e-27
// H2: 3.34e-27
m               3.34e-27;

f               1.8e6;

// 260?
V               1000;

Vf              -6;

Vi              12;

Vc              -10;

// 10.1
Br              10.1;
// 4.7
Bz              4.7;

// ************************************************************************* //
