/*--------------------------------*- C++ -*----------------------------------*\
| =========                 |                                                |
| \\      /  F ield         | cfMesh: A library for mesh generation          |
|  \\    /   O peration     |                                                |
|   \\  /    A nd           | Author: Franjo Juretic                         |
|    \\/     M anipulation  | E-mail: franjo.juretic@c-fields.com            |
\*---------------------------------------------------------------------------*/

FoamFile
{
    version   2.0;
    format    ascii;
    class     dictionary;
    location  "system";
    object    meshDict;
}

// * * * * * * * * * * * * * * * * * * * * * * * * * * * * * * * * * * * * * //

surfaceFile "constant/cyclotron.fms";

maxCellSize 0.0005;

localRefinement
{
    "filament.*"
    {
        cellSize 0.0001;
    }
    "cable.*"
    {
        cellSize 0.0001;
    }
}

renameBoundary
{
    newPatchNames
    {
        "dummy.*"
        {
            newName "body";
            type    patch;
        }
        "cable.*"
        {
            newName "cable";
            type    patch;
        }
        "body.*"
        {
            newName "body";
            type    patch;
        }
        "dee.*"
        {
            newName "dee";
            type    patch;
        }
        "filament.*"
        {
            newName "filament";
            type    patch;
        }
        "faraday.*"
        {
            newName "faraday";
            type    patch;
        }
    }
}

// ************************************************************************* //
