FoamFile
{
    version     2.3;
    format      ascii;
    class       dictionary;
    object      physicalProperties;
}
// * * * * * * * * * * * * * * * * * * * * * * * * * * * * * * * * * * * * * //

epsilon0        8.85419e-12;

k               0.00016;

// ************************************************************************* //
