FoamFile
{
    version     2.3;
    format      ascii;
    class       volScalarField;
    object      phi;
}
// * * * * * * * * * * * * * * * * * * * * * * * * * * * * * * * * * * * * * //

dimensions      [1 2 -3 0 0 -1 0];

internalField   uniform 0;

boundaryField
{
    dee
    {
        type            fixedValue;
        value           uniform 0;
    }

    filament
    {
        type            uniformFixedValue;
        uniformValue
        {
            type expression;
            expression
            #{
                (pos().z() - 0.008) * 100
            #};
        }
    }

    body
    {
        type            fixedValue;
        value           uniform 0;
    }

    cable
    {
        type            uniformFixedValue;
        uniformValue
        {
            type expression;
            expression
            #{
                (pos().z() - 0.008) * 100
            #};
        }
    }

    faraday
    {
        type            fixedValue;
        value           uniform 0;
    }
}

// ************************************************************************* //
